LAMMPS (23 Jun 2022 - Update 3)
package gpu 0
package omp 2
set 2 OpenMP thread(s) per MPI task
using multi-threaded neighbor list subroutines
package gpu 1

#-------------------------   initialise

units           metal
dimension       3
boundary        p p p
atom_style      atomic

#-------------------------   simulation box size

variable        xx equal 500
variable        yy equal 500
variable        zz equal 200
variable        spotDiameter equal 100
variable        beamDepth equal 20
variable        sampleCubeXsize equal 40
variable        sampleCubeYsize equal 40
variable        sampleCubeZsize equal 40

#-------------------------   variable calculations

variable        boxHeight equal 200*5
variable        beamX equal 500/2
variable        beamY equal 500/2
variable        beamBottom equal 200-20
variable        beamLowZ equal 180-50

variable        beamEdgeXleft equal 250-(100/2)-50
variable        beamEdgeXright equal 250+(100/2)+50
variable        beamEdgeYback equal 250-(100/2)-50
variable        beamEdgeYfront equal 250+(100/2)+50

variable        sampleMiddleXlo equal 250-(40/2)
variable        sampleMiddleXhi equal 250+(40/2)
variable        sampleMiddleYlo equal 250-(40/2)
variable        sampleMiddleYhi equal 250+(40/2)
variable        belowBeamZlo equal 130-40

variable        sampleXlo equal 150-40
variable        sampleXhi equal 350+40
variable        sampleYlo equal 150-40
variable        sampleYhi equal 350+40
variable        sampleZlow equal 200-40

#-------------------------   create atoms

region          simBox block 0 500 0 500 0 1000 units box
create_box      1 simBox
Created orthogonal box = (0 0 0) to (500 500 1000)
read_data       Substrate_SingleCrystal.atoms add append
Reading data file ...
  orthogonal box = (-1.4379249 -1.5959654 -1.1548823) to (501.43792 501.59597 1000)
  reading atoms ...
  2888611 atoms

#-------------------------   regions

region          atoms block 0 500 0 500 0 200 units box
region          beam cylinder z 250 250 100 180 200 units box
region          belowBeam block 230 270 230 270 90 130 units box
region          leftBeam block 110 150 230 270 160 200 units box
region          rightBeam block 350 390 230 270 160 200 units box
region          frontBeam block 230 270 350 390 160 200 units box
region          backBeam block 230 270 110 150 160 200 units box

#-------------------------   groups

group           atoms region atoms
2821152 atoms in group atoms
group           spot region beam
33441 atoms in group spot
group           remainder subtract atoms spot
2787711 atoms in group remainder
group           belowBeam region belowBeam
3576 atoms in group belowBeam
group           leftBeam region leftBeam
3578 atoms in group leftBeam
group           rightBeam region rightBeam
3596 atoms in group rightBeam
group           frontBeam region rightBeam
3596 atoms in group frontBeam
group           backBeam region backBeam
3557 atoms in group backBeam

#-------------------------   potential

pair_style      eam/fs
pair_coeff      * *         Ti1.eam.fs Ti
mass            * 47.867

#-------------------------   set temperature

velocity        all create 300.0 12345
fix             NPT all npt temp 300 300 0.01 x 0.0 0.0 0.1 y 0.0 0.0 0.1 z 0.0 0.0 0.1
timestep        0.001
run             0

CITE-CITE-CITE-CITE-CITE-CITE-CITE-CITE-CITE-CITE-CITE-CITE-CITE

Your simulation uses code contributions which should be cited:

- GPU package (short-range, long-range and three-body potentials):

@Article{Brown11,
 author = {W. M. Brown, P. Wang, S. J. Plimpton, A. N. Tharrington},
 title = {Implementing Molecular Dynamics on Hybrid High Performance Computers - Short Range Forces},
 journal = {Comp.~Phys.~Comm.},
 year =    2011,
 volume =  182,
 pages =   {898--911}
}

@Article{Brown12,
 author = {W. M. Brown, A. Kohlmeyer, S. J. Plimpton, A. N. Tharrington},
 title = {Implementing Molecular Dynamics on Hybrid High Performance Computers - Particle-Particle Particle-Mesh},
 journal = {Comp.~Phys.~Comm.},
 year =    2012,
 volume =  183,
 pages =   {449--459}
}

@Article{Brown13,
 author = {W. M. Brown, Y. Masako},
 title = {Implementing Molecular Dynamics on Hybrid High Performance Computers â€“ Three-Body Potentials},
 journal = {Comp.~Phys.~Comm.},
 year =    2013,
 volume =  184,
 pages =   {2785--2793}
}

@Article{Trung15,
 author = {T. D. Nguyen, S. J. Plimpton},
 title = {Accelerating dissipative particle dynamics simulations for soft matter systems},
 journal = {Comput.~Mater.~Sci.},
 year =    2015,
 volume =  100,
 pages =   {173--180}
}

@Article{Trung17,
 author = {T. D. Nguyen},
 title = {GPU-accelerated Tersoff potentials for massively parallel Molecular Dynamics simulations},
 journal = {Comp.~Phys.~Comm.},
 year =    2017,
 volume =  212,
 pages =   {113--122}
}

@Article{Nikolskiy19,
 author = {V. Nikolskiy, V. Stegailov},
 title = {GPU acceleration of four-site water models in LAMMPS},
 journal = {Proceeding of the International Conference on Parallel Computing (ParCo 2019), Prague, Czech Republic},
 year =    2019
}

CITE-CITE-CITE-CITE-CITE-CITE-CITE-CITE-CITE-CITE-CITE-CITE-CITE

No /omp style for force computation currently active
Step          Temp          E_pair         E_mol          TotEng         Press          Volume
0   300           -15295866       0             -15183851      -63.247168      2.533353e+08
Loop time of 3.45e-06 on 16 procs for 0 steps with 2888611 atoms

velocity        all scale 300.0
unfix           NPT

#-------------------------   thermostat

fix             NVE all nve

#-------------------------   TTM

fix 		TTM1 atoms ttm/laser 699489 0.224 0.0136688989351759 0.8 50 100 100 50 infile ttm_file.in  outfile 1000 temp/boxTemp.lammps beamfile 350 beam_file.in Cfile Ce_titanium.txt Gfile Ge_titanium.txt

#-------------------------   compute

compute 	    ke all ke/atom
compute     	spotTemp spot temp
compute     	remainderTemp remainder temp
compute         belowBeamtemp belowBeam temp
compute         leftBeamtemp leftBeam temp
compute         rightBeamtemp rightBeam temp
compute         frontBeamtemp frontBeam temp
compute         backBeamtemp backBeam temp

fix         	temp all ave/atom 10 100 1000 c_ke

#-------------------------   Visual output

dump 		ovito all custom 1000 output.dmp id type xu yu zu f_temp

#-------------------------   execution

thermo_style 	custom step pe ke etotal c_spotTemp c_remainderTemp c_belowBeamtemp c_leftBeamtemp c_rightBeamtemp c_frontBeamtemp c_backBeamtemp
thermo_modify   lost ignore flush yes
thermo_modify   format float "%20.16g"
thermo 		    1000
timestep        0.001
run             50000
No /omp style for force computation currently active
Step         PotEng         KinEng         TotEng       c_spotTemp   c_remainderTemp c_belowBeamtemp c_leftBeamtemp c_rightBeamtemp c_frontBeamtemp c_backBeamtemp
0    -15295865.97339494    112014.6442345349    -15183851.3291604    299.9178723247891    300.0175763647765    304.2069821686824    303.0275079443273    300.9302307361835    300.9302307361835    298.7153695749331
Averages over the last 26 of 51 rows, steps 25000 to 50000:
PotEng KinEng TotEng c_spotTemp c_remainderTemp c_belowBeamtemp c_leftBeamtemp c_rightBeamtemp c_frontBeamtemp c_backBeamtemp
-1.52325e+07 119049 -1.51135e+07 421.048 317.387 636.849 327.05 325.485 325.485 324.004
Loop time of 12752.1 on 16 procs for 50000 steps with 2888611 atoms

print           "------------------------------- All Done! --------------------------------------"
