LAMMPS (2 Aug 2023)

#-------------------------   initialise

units           metal
dimension       3
boundary        p p p
atom_style      atomic

#-------------------------   simulation box size

variable        xx equal 500
variable        yy equal 500
variable        zz equal 200
variable        spotDiameter equal 150
variable        beamDepth equal 20
variable        sampleCubeXsize equal 40
variable        sampleCubeYsize equal 40
variable        sampleCubeZsize equal 40

#-------------------------   variable calculations

variable        boxHeight equal 200*5
variable        beamX equal 500/2
variable        beamY equal 500/2
variable        beamBottom equal 200-20
variable        beamLowZ equal 180-50

variable        beamEdgeXleft equal 250-(150/2)-50
variable        beamEdgeXright equal 250+(150/2)+50
variable        beamEdgeYback equal 250-(150/2)-50
variable        beamEdgeYfront equal 250+(150/2)+50

variable        sampleMiddleXlo equal 250-(40/2)
variable        sampleMiddleXhi equal 250+(40/2)
variable        sampleMiddleYlo equal 250-(40/2)
variable        sampleMiddleYhi equal 250+(40/2)
variable        belowBeamZlo equal 130-40

variable        sampleXlo equal 125-40
variable        sampleXhi equal 375+40
variable        sampleYlo equal 125-40
variable        sampleYhi equal 375+40
variable        sampleZlow equal 200-40

#-------------------------   create atoms

region          simBox block 0 500 0 500 0 1000 units box
create_box      1 simBox
Created orthogonal box = (0 0 0) to (500 500 1000)
read_data       substrate_250grains.atoms add append
Reading data file ...
  orthogonal box = (0 0 0) to (500 500 1000)
  reading atoms ...
  2753712 atoms

#-------------------------   regions

region          atoms block 0 500 0 500 0 200 units box
region          beam cylinder z 250 250 150 180 200 units box
region          belowBeam block 230 270 230 270 90 130 units box
region          leftBeam block 85 125 230 270 160 200 units box
region          rightBeam block 375 415 230 270 160 200 units box
region          frontBeam block 230 270 375 415 160 200 units box
region          backBeam block 230 270 85 125 160 200 units box

#-------------------------   groups

group           atoms region atoms
2753712 atoms in group atoms
group           spot region beam
76567 atoms in group spot
group           remainder subtract atoms spot
2677145 atoms in group remainder
group           belowBeam region belowBeam
3609 atoms in group belowBeam
group           leftBeam region leftBeam
3544 atoms in group leftBeam
group           rightBeam region rightBeam
3540 atoms in group rightBeam
group           frontBeam region rightBeam
3540 atoms in group frontBeam
group           backBeam region backBeam
3541 atoms in group backBeam

#-------------------------   potential

pair_style      eam/fs
pair_coeff      * *         Ti1.eam.fs Ti
mass            * 47.867

#-------------------------   set temperature

velocity        all create 300.0 12345
fix             NPT all npt temp 300 300 0.01 x 0.0 0.0 0.1 y 0.0 0.0 0.1 z 0.0 0.0 0.1
timestep        0.001
run             0
Step          Temp          E_pair         E_mol          TotEng         Press          Volume
0   300           -14424873       0             -14318089      -261.3254       2.5e+08
Loop time of 3.48919e-05 on 560 procs for 0 steps with 2753712 atoms

velocity        all scale 300.0
unfix           NPT
reset_timestep  0

#-------------------------   thermostat

fix             NVE all nve

#-------------------------   TTM

fix 		TTM1 atoms ttm/laser 699489 0.224 0.0136688989351759 0.8 50 100 100 50 infile ttm_file.in  outfile 1000 temp/boxTemp.lammps beamfile 350 beam_file.in Cfile Ce_titanium.txt Gfile Ge_titanium.txt

#-------------------------   compute

compute 	    ke all ke/atom
compute     	spotTemp spot temp
compute     	remainderTemp remainder temp
compute         belowBeamtemp belowBeam temp
compute         leftBeamtemp leftBeam temp
compute         rightBeamtemp rightBeam temp
compute         frontBeamtemp frontBeam temp
compute         backBeamtemp backBeam temp

fix         	temp all ave/atom 10 100 1000 c_ke

#-------------------------   Visual output

dump 		ovito all custom 1000 output_250grains.dmp id type xu yu zu f_temp

#-------------------------   execution

thermo_style 	custom step pe ke etotal c_spotTemp c_remainderTemp c_belowBeamtemp c_leftBeamtemp c_rightBeamtemp c_frontBeamtemp c_backBeamtemp
thermo_modify   lost ignore flush yes
thermo_modify   format float "%20.16g"
thermo 		    1000
timestep        0.001
run             50000
Step         PotEng         KinEng         TotEng       c_spotTemp   c_remainderTemp c_belowBeamtemp c_leftBeamtemp c_rightBeamtemp c_frontBeamtemp c_backBeamtemp
0    -14424872.68471607    106783.5249444285   -14318089.15977164     299.531342058095     300.013515621117    298.2960544635535    302.0098722396055    298.6854807482157    298.6854807482157    301.9106674925879
Averages over the last 26 of 51 rows, steps 25000 to 50000:
PotEng KinEng TotEng c_spotTemp c_remainderTemp c_belowBeamtemp c_leftBeamtemp c_rightBeamtemp c_frontBeamtemp c_backBeamtemp
-1.43756e+07 110032 -1.42655e+07 375.318 307.234 330.48 321.879 325.845 325.845 323.567
Loop time of 6604.05 on 560 procs for 50000 steps with 2753712 atoms

print           "------------------------------- All Done! --------------------------------------"
