LAMMPS (2 Aug 2023)

#-------------------------   initialise

units           metal
dimension       3
boundary        p p p
atom_style      atomic

#-------------------------   simulation box size

variable        xx equal 1010
variable        yy equal 1010
variable        zz equal 202
variable        spotDiameter equal 500
variable        beamDepth equal 20
variable        sampleCubeXsize equal 40
variable        sampleCubeYsize equal 40
variable        sampleCubeZsize equal 40

#-------------------------   variable calculations

variable        boxHeight equal (202*5)-2
variable        beamX equal (1010/2)-10
variable        beamY equal (1010/2)-10
variable        beamBottom equal 202-20
variable        beamLowZ equal 182-50

variable        beamEdgeXleft equal 495-(500/2)-50
variable        beamEdgeXright equal 495+(500/2)+50
variable        beamEdgeYback equal 495-(500/2)-50
variable        beamEdgeYfront equal 495+(500/2)+50

variable        sampleMiddleXlo equal 495-(40/2)
variable        sampleMiddleXhi equal 495+(40/2)
variable        sampleMiddleYlo equal 495-(40/2)
variable        sampleMiddleYhi equal 495+(40/2)
variable        belowBeamZlo equal 132-40

variable        sampleXlo equal 195-40
variable        sampleXhi equal 795+40
variable        sampleYlo equal 195-40
variable        sampleYhi equal 795+40
variable        sampleZlow equal 202-40

#-------------------------   create atoms

region          simBox block -10 1010 -10 1010 -10 1008 units box
create_box      1 simBox
Created orthogonal box = (-10 -10 -10) to (1010 1010 1008)
read_data       Substrate.atoms add append
Reading data file ...
  orthogonal box = (-10 -10 -10) to (1010 1010 1008)
  reading atoms ...
  11554444 atoms

#-------------------------   regions

region          atoms block -10 1010 -10 1010 -10 202 units box
region          beam cylinder z 495 495 500 182 202 units box
region          belowBeam block 475 515 475 515 10 50 units box
region          leftBeam block 155 195 475 515 162 202 units box
region          rightBeam block 795 835 475 515 162 202 units box
region          frontBeam block 475 515 795 835 162 202 units box
region          backBeam block 475 515 155 195 162 202 units box

#-------------------------   groups

group           atoms region atoms
11554444 atoms in group atoms
group           spot region beam
834010 atoms in group spot
group           remainder subtract atoms spot
10720434 atoms in group remainder
group           belowBeam region belowBeam
3711 atoms in group belowBeam
group           leftBeam region leftBeam
3675 atoms in group leftBeam
group           rightBeam region rightBeam
3672 atoms in group rightBeam
group           frontBeam region rightBeam
3672 atoms in group frontBeam
group           backBeam region backBeam
3546 atoms in group backBeam

#-------------------------   potential

pair_style      eam/fs
pair_coeff      * *         Ti1.eam.fs Ti
mass            * 47.867

#-------------------------   set temperature

velocity        all create 300.0 12345
fix             NPT all npt temp 300 300 0.01 x 0.0 0.0 0.1 y 0.0 0.0 0.1 z 0.0 0.0 0.1
timestep        0.001
run             0
Step          Temp          E_pair         E_mol          TotEng         Press          Volume
0   300           -61105792       0             -60657733      -100.82835      1.0591272e+09
Loop time of 3.29124e-05 on 840 procs for 0 steps with 11554444 atoms

velocity        all scale 300.0
unfix           NPT

#-------------------------   thermostat

fix             NVE all nve

#-------------------------   TTM

fix 		TTM1 atoms ttm/laser 699489 0.224 0.0136688989351759 0.8 50 100 100 50 infile ttm_file.in  outfile 1000 temp/boxTemp.lammps beamfile 350 beam_file.in Cfile Ce_titanium.txt Gfile Ge_titanium.txt

#-------------------------   compute

compute 	    ke all ke/atom
compute     	spotTemp spot temp
compute     	remainderTemp remainder temp
compute         belowBeamtemp belowBeam temp
compute         leftBeamtemp leftBeam temp
compute         rightBeamtemp rightBeam temp
compute         frontBeamtemp frontBeam temp
compute         backBeamtemp backBeam temp

fix         	temp all ave/atom 10 100 1000 c_ke

#-------------------------   Visual output

dump 		ovito all custom 1000 SingleCrystal_output.dmp id type xu yu zu f_temp

#-------------------------   execution

thermo_style 	custom step pe ke etotal c_spotTemp c_remainderTemp c_belowBeamtemp c_leftBeamtemp c_rightBeamtemp c_frontBeamtemp c_backBeamtemp
thermo_modify   lost ignore flush yes
thermo_modify   format float "%20.16g"
thermo 		    1000
timestep        0.001
run             50000
Step         PotEng         KinEng         TotEng       c_spotTemp   c_remainderTemp c_belowBeamtemp c_leftBeamtemp c_rightBeamtemp c_frontBeamtemp c_backBeamtemp
0    -61105791.80186224    448058.6932722706   -60657733.10858997    299.7064216687816    300.0228672638914    302.0048537106452    299.7005668230694    300.7964054261499    300.7964054261499    296.9584475598903
Averages over the last 26 of 51 rows, steps 25000 to 50000:
PotEng KinEng TotEng c_spotTemp c_remainderTemp c_belowBeamtemp c_leftBeamtemp c_rightBeamtemp c_frontBeamtemp c_backBeamtemp
-6.02053e+07 505823 -5.96994e+07 409.442 333.171 351.235 341.962 369.465 369.465 356.413
Loop time of 14969.1 on 840 procs for 50000 steps with 11554444 atoms

print           "------------------------------- All Done! --------------------------------------"
